56

Pd      0.100813002  -0.261588260   0.015184886
P       2.443251957  -0.515357182   0.033929075
Cl      3.281323692  -1.487051901   1.135897213
Cl      3.149903800  -0.921514721  -1.449141624
P       0.487489334   2.041933834   0.027119200
Cl      0.300757010   2.834317665   1.510668793
Cl     -0.277627909   3.092449834  -1.055248289
C       3.137084245   1.203415876   0.375482412
H       3.073400780   1.357471785   1.466447692
H       4.204093218   1.233466914   0.099790832
C       2.317534948   2.258121186  -0.364375237
H       2.425049072   2.119286940  -1.454337040
H       2.635677200   3.287389568  -0.128780916
C      -1.907372633   0.088121106  -0.001006398
C      -2.614478439   0.243384339  -1.201572058
H      -2.100481405   0.113124584  -2.158267060
C      -3.975886277   0.551570915  -1.203043160
H      -4.505451428   0.665302851  -2.152802928
C      -4.662156236   0.708661984   0.000640299
C      -3.976872349   0.545140462   1.203375982
H      -4.506140400   0.654318469   2.153808450
C      -2.615106499   0.235448350   1.200073886
H      -2.101749271   0.099963725   2.156735845
C      -0.336807727  -2.272430896  -0.024912578
H      -5.727886504   0.949418380   0.000937099
F       0.781181053  -3.059259819  -0.198360281
F      -1.160930206  -2.653272695  -1.021006930
F      -0.894595067  -2.729483064   1.117064895
X       4.035741502  -2.361754830   2.127870042
X       7.090010212  -0.908943911   1.086090757
X       3.855777968  -1.065882503   3.407412162
X       5.729805520  -4.325922086   4.355369782
X       1.132503316  -3.742725707   3.118134386
X       4.210788000  -3.622220810   0.883288089
X       2.517079257  -0.600955580   0.131003501
X       3.785332406  -1.286735758  -2.782734050
X       0.632048365  -2.338682082  -3.997118538
X       3.459335844   0.404448881  -3.401216677
X       5.213015374  -2.107315518  -5.779053659
X       6.782689715  -0.286807124  -1.628399657
X       4.102421958  -2.931713166  -2.181149855
X       2.505470372  -0.551118043  -0.096650516
X       0.132835540   3.546879130   2.844770055
X      -3.348864060   2.921210975   2.740711164
X       0.391272377   1.962592236   3.723488122
X      -0.244439295   5.147815024   5.842140396
X       3.442368588   4.141608622   2.943683339
X      -0.118540180   5.087879496   1.990060679
X       0.471047699   2.111702611   0.157744582
X      -0.966470153   4.038239262  -2.029713912
X      -4.088691772   3.306635552  -0.532713854
X      -0.727762875   5.421632490  -0.855770978
X      -2.513168188   6.161875932  -4.217738930
X       2.001360739   4.733665902  -3.452688818
X      -1.198655374   2.692643663  -3.171581903
X       0.420084242   2.134481908  -0.068234918
